<?xml version="1.0" encoding="UTF-8"?>

<!-- generated on 03/23/21 16:08:49 by Eclipse SUMO netedit Version 1.7.0
<configuration xmlns:xsi="http://www.w3.org/2001/XMLSchema-instance" xsi:noNamespaceSchemaLocation="http://sumo.dlr.de/xsd/netconvertConfiguration.xsd">

    <input>
        <sumo-net-file value="D:\data\TLC\jinkai.net.xml"/>
    </input>

    <output>
        <output-file value="D:\data\TLC\jinkai.net.xml"/>
    </output>

    <processing>
        <geometry.min-radius.fix.railways value="false"/>
        <geometry.max-grade.fix value="false"/>
        <offset.disable-normalization value="true"/>
        <lefthand value="false"/>
    </processing>

    <junctions>
        <no-turnarounds value="true"/>
        <junctions.corner-detail value="5"/>
        <junctions.limit-turn-speed value="5.5"/>
        <rectangular-lane-cut value="false"/>
    </junctions>

    <pedestrian>
        <walkingareas value="false"/>
    </pedestrian>

    <report>
        <aggregate-warnings value="5"/>
    </report>

</configuration>
-->

<net version="1.6" junctionCornerDetail="5" limitTurnSpeed="5.50" xmlns:xsi="http://www.w3.org/2001/XMLSchema-instance" xsi:noNamespaceSchemaLocation="http://sumo.dlr.de/xsd/net_file.xsd">

    <location netOffset="-644758.21,-3274571.81" convBoundary="5466.68,7214.12,6282.85,8806.20" origBoundary="106.494820,29.592560,106.628800,29.713887" projParameter="+proj=utm +zone=48 +ellps=WGS84 +datum=WGS84 +units=m +no_defs"/>

    <type id="highway.bridleway" priority="1" numLanes="1" speed="2.78" allow="pedestrian" oneway="1" width="2.00"/>
    <type id="highway.bus_guideway" priority="1" numLanes="1" speed="27.78" allow="bus" oneway="1"/>
    <type id="highway.cycleway" priority="1" numLanes="1" speed="8.33" allow="bicycle" oneway="0" width="1.00"/>
    <type id="highway.footway" priority="1" numLanes="1" speed="2.78" allow="pedestrian" oneway="1" width="2.00"/>
    <type id="highway.ford" priority="1" numLanes="1" speed="2.78" allow="army" oneway="0"/>
    <type id="highway.living_street" priority="2" numLanes="1" speed="2.78" disallow="tram rail_urban rail rail_electric rail_fast ship" oneway="0"/>
    <type id="highway.motorway" priority="14" numLanes="2" speed="39.44" allow="private emergency authority army vip passenger hov taxi bus coach delivery truck trailer motorcycle evehicle custom1 custom2" oneway="1"/>
    <type id="highway.motorway_link" priority="9" numLanes="1" speed="22.22" allow="private emergency authority army vip passenger hov taxi bus coach delivery truck trailer motorcycle evehicle custom1 custom2" oneway="1"/>
    <type id="highway.path" priority="1" numLanes="1" speed="2.78" allow="pedestrian bicycle" oneway="1" width="2.00"/>
    <type id="highway.pedestrian" priority="1" numLanes="1" speed="2.78" allow="pedestrian" oneway="1" width="2.00"/>
    <type id="highway.primary" priority="12" numLanes="2" speed="27.78" disallow="tram rail_urban rail rail_electric rail_fast ship" oneway="0"/>
    <type id="highway.primary_link" priority="7" numLanes="1" speed="22.22" disallow="tram rail_urban rail rail_electric rail_fast ship" oneway="0"/>
    <type id="highway.raceway" priority="15" numLanes="2" speed="83.33" allow="vip" oneway="0"/>
    <type id="highway.residential" priority="3" numLanes="1" speed="13.89" disallow="tram rail_urban rail rail_electric rail_fast ship" oneway="0"/>
    <type id="highway.secondary" priority="11" numLanes="1" speed="27.78" disallow="tram rail_urban rail rail_electric rail_fast ship" oneway="0"/>
    <type id="highway.secondary_link" priority="6" numLanes="1" speed="22.22" disallow="tram rail_urban rail rail_electric rail_fast ship" oneway="0"/>
    <type id="highway.service" priority="1" numLanes="1" speed="5.56" allow="pedestrian delivery bicycle" oneway="0"/>
    <type id="highway.stairs" priority="1" numLanes="1" speed="1.39" allow="pedestrian" oneway="1" width="2.00"/>
    <type id="highway.step" priority="1" numLanes="1" speed="1.39" allow="pedestrian" oneway="1" width="2.00"/>
    <type id="highway.steps" priority="1" numLanes="1" speed="1.39" allow="pedestrian" oneway="1" width="2.00"/>
    <type id="highway.tertiary" priority="10" numLanes="1" speed="22.22" disallow="tram rail_urban rail rail_electric rail_fast ship" oneway="0"/>
    <type id="highway.tertiary_link" priority="5" numLanes="1" speed="22.22" disallow="tram rail_urban rail rail_electric rail_fast ship" oneway="0"/>
    <type id="highway.track" priority="1" numLanes="1" speed="5.56" allow="pedestrian motorcycle moped bicycle" oneway="0"/>
    <type id="highway.trunk" priority="13" numLanes="2" speed="27.78" disallow="pedestrian bicycle tram rail_urban rail rail_electric rail_fast ship" oneway="0"/>
    <type id="highway.trunk_link" priority="8" numLanes="1" speed="22.22" disallow="pedestrian bicycle tram rail_urban rail rail_electric rail_fast ship" oneway="0"/>
    <type id="highway.unclassified" priority="4" numLanes="1" speed="13.89" disallow="tram rail_urban rail rail_electric rail_fast ship" oneway="0"/>
    <type id="highway.unsurfaced" priority="1" numLanes="1" speed="8.33" disallow="tram rail_urban rail rail_electric rail_fast ship" oneway="0"/>
    <type id="railway.highspeed" priority="21" numLanes="1" speed="69.44" allow="rail_fast" oneway="1"/>
    <type id="railway.light_rail" priority="19" numLanes="1" speed="27.78" allow="rail_urban" oneway="1"/>
    <type id="railway.preserved" priority="16" numLanes="1" speed="27.78" allow="rail" oneway="1"/>
    <type id="railway.rail" priority="20" numLanes="1" speed="44.44" allow="rail" oneway="1"/>
    <type id="railway.subway" priority="18" numLanes="1" speed="27.78" allow="rail_urban" oneway="1"/>
    <type id="railway.tram" priority="17" numLanes="1" speed="13.89" allow="tram" oneway="1"/>

    <edge id=":gneJ0_0" function="internal">
        <lane id=":gneJ0_0_0" index="0" disallow="tram rail_urban rail rail_electric rail_fast ship" speed="27.78" length="9.36" shape="5820.39,7687.45 5819.07,7684.97 5816.74,7684.02 5814.38,7683.07 5813.01,7680.60"/>
        <lane id=":gneJ0_0_1" index="1" disallow="tram rail_urban rail rail_electric rail_fast ship" speed="27.78" length="9.36" shape="5823.56,7687.05 5822.25,7684.56 5819.91,7683.59 5817.55,7682.63 5816.18,7680.14"/>
        <lane id=":gneJ0_0_2" index="2" disallow="tram rail_urban rail rail_electric rail_fast ship" speed="27.78" length="9.36" shape="5823.56,7687.05 5822.77,7684.71 5821.49,7683.36 5820.19,7682.01 5819.35,7679.68"/>
        <lane id=":gneJ0_0_3" index="3" disallow="tram rail_urban rail rail_electric rail_fast ship" speed="27.78" length="9.36" shape="5826.74,7686.65 5825.94,7684.29 5824.66,7682.93 5823.36,7681.57 5822.51,7679.22"/>
        <lane id=":gneJ0_0_4" index="4" disallow="tram rail_urban rail rail_electric rail_fast ship" speed="27.78" length="9.36" shape="5826.74,7686.65 5825.68,7678.76"/>
    </edge>
    <edge id=":gneJ0_5" function="internal">
        <lane id=":gneJ0_5_0" index="0" disallow="tram rail_urban rail rail_electric rail_fast ship" speed="27.78" length="8.31" shape="5835.17,7677.37 5836.02,7679.80 5837.32,7681.21 5838.60,7682.63 5839.40,7685.06"/>
        <lane id=":gneJ0_5_1" index="1" disallow="tram rail_urban rail rail_electric rail_fast ship" speed="27.78" length="8.31" shape="5835.17,7677.37 5836.23,7685.46"/>
        <lane id=":gneJ0_5_2" index="2" disallow="tram rail_urban rail rail_electric rail_fast ship" speed="27.78" length="8.31" shape="5832.00,7677.84 5833.05,7685.86"/>
        <lane id=":gneJ0_5_3" index="3" disallow="tram rail_urban rail rail_electric rail_fast ship" speed="27.78" length="8.31" shape="5828.84,7678.30 5829.88,7686.26"/>
    </edge>
    <edge id=":gneJ16_0" function="internal">
        <lane id=":gneJ16_0_0" index="0" disallow="tram rail_urban rail rail_electric rail_fast ship" speed="27.78" length="0.41" shape="5779.88,7413.86 5780.00,7413.44"/>
        <lane id=":gneJ16_0_1" index="1" disallow="tram rail_urban rail rail_electric rail_fast ship" speed="27.78" length="0.41" shape="5783.03,7413.33 5783.16,7412.94"/>
        <lane id=":gneJ16_0_2" index="2" disallow="tram rail_urban rail rail_electric rail_fast ship" speed="27.78" length="0.41" shape="5786.19,7412.79 5786.32,7412.44"/>
    </edge>
    <edge id=":gneJ16_3" function="internal">
        <lane id=":gneJ16_3_0" index="0" disallow="tram rail_urban rail rail_electric rail_fast ship" speed="27.78" length="0.24" shape="5798.59,7410.50 5798.63,7410.68"/>
        <lane id=":gneJ16_3_1" index="1" disallow="tram rail_urban rail rail_electric rail_fast ship" speed="27.78" length="0.24" shape="5795.43,7411.00 5795.48,7411.21"/>
        <lane id=":gneJ16_3_2" index="2" disallow="tram rail_urban rail rail_electric rail_fast ship" speed="27.78" length="0.24" shape="5792.27,7411.50 5792.32,7411.75"/>
        <lane id=":gneJ16_3_3" index="3" disallow="tram rail_urban rail rail_electric rail_fast ship" speed="27.78" length="0.24" shape="5789.11,7412.00 5789.17,7412.28"/>
    </edge>
    <edge id=":gneJ16_7" function="internal">
        <lane id=":gneJ16_7_0" index="0" disallow="tram rail_urban rail rail_electric rail_fast ship" speed="3.51" length="2.06" shape="5789.11,7412.00 5788.58,7413.15 5787.93,7413.61"/>
    </edge>
    <edge id=":gneJ16_8" function="internal">
        <lane id=":gneJ16_8_0" index="0" disallow="tram rail_urban rail rail_electric rail_fast ship" speed="3.51" length="2.06" shape="5787.93,7413.61 5787.18,7413.37 5786.32,7412.44"/>
    </edge>
    <edge id=":gneJ18_0" function="internal">
        <lane id=":gneJ18_0_0" index="0" disallow="tram rail_urban rail rail_electric rail_fast ship" speed="27.78" length="0.33" shape="5871.34,8298.54 5871.30,8298.19"/>
        <lane id=":gneJ18_0_1" index="1" disallow="tram rail_urban rail rail_electric rail_fast ship" speed="27.78" length="0.33" shape="5874.54,8298.33 5874.50,8298.01"/>
        <lane id=":gneJ18_0_2" index="2" disallow="tram rail_urban rail rail_electric rail_fast ship" speed="27.78" length="0.33" shape="5877.73,8298.13 5877.69,8297.82"/>
    </edge>
    <edge id=":gneJ18_3" function="internal">
        <lane id=":gneJ18_3_0" index="0" disallow="tram rail_urban rail rail_electric rail_fast ship" speed="27.78" length="0.28" shape="5890.46,8297.07 5890.46,8297.33"/>
        <lane id=":gneJ18_3_1" index="1" disallow="tram rail_urban rail rail_electric rail_fast ship" speed="27.78" length="0.28" shape="5887.27,8297.26 5887.27,8297.53"/>
        <lane id=":gneJ18_3_2" index="2" disallow="tram rail_urban rail rail_electric rail_fast ship" speed="27.78" length="0.28" shape="5884.07,8297.44 5884.08,8297.73"/>
        <lane id=":gneJ18_3_3" index="3" disallow="tram rail_urban rail rail_electric rail_fast ship" speed="27.78" length="0.28" shape="5880.88,8297.63 5880.88,8297.93"/>
    </edge>
    <edge id=":gneJ18_7" function="internal">
        <lane id=":gneJ18_7_0" index="0" disallow="tram rail_urban rail rail_electric rail_fast ship" speed="3.65" length="2.33" shape="5880.88,8297.63 5880.15,8298.87 5879.38,8299.32"/>
    </edge>
    <edge id=":gneJ18_8" function="internal">
        <lane id=":gneJ18_8_0" index="0" disallow="tram rail_urban rail rail_electric rail_fast ship" speed="3.65" length="2.33" shape="5879.38,8299.32 5878.56,8298.97 5877.69,8297.82"/>
    </edge>
    <edge id=":gneJ4_0" function="internal">
        <lane id=":gneJ4_0_0" index="0" disallow="tram rail_urban rail rail_electric rail_fast ship" speed="27.78" length="9.78" shape="5881.89,8507.13 5880.80,8504.51 5878.55,8503.31 5876.30,8502.12 5875.18,8499.50"/>
        <lane id=":gneJ4_0_1" index="1" disallow="tram rail_urban rail rail_electric rail_fast ship" speed="27.78" length="9.78" shape="5885.09,8507.01 5883.99,8504.38 5881.75,8503.18 5879.49,8501.98 5878.37,8499.35"/>
        <lane id=":gneJ4_0_2" index="2" disallow="tram rail_urban rail rail_electric rail_fast ship" speed="27.78" length="9.78" shape="5885.09,8507.01 5884.50,8504.59 5883.34,8503.11 5882.18,8501.63 5881.57,8499.20"/>
        <lane id=":gneJ4_0_3" index="3" disallow="tram rail_urban rail rail_electric rail_fast ship" speed="27.78" length="9.78" shape="5888.29,8506.89 5887.70,8504.46 5886.54,8502.97 5885.38,8501.49 5884.77,8499.06"/>
    </edge>
    <edge id=":gneJ4_4" function="internal">
        <lane id=":gneJ4_4_0" index="0" disallow="tram rail_urban rail rail_electric rail_fast ship" speed="27.78" length="8.42" shape="5897.54,8498.47 5898.29,8500.98 5899.76,8502.43 5901.22,8503.87 5901.95,8506.38"/>
        <lane id=":gneJ4_4_1" index="1" disallow="tram rail_urban rail rail_electric rail_fast ship" speed="27.78" length="8.42" shape="5897.54,8498.47 5897.78,8500.87 5898.16,8502.49 5898.52,8504.11 5898.75,8506.50"/>
        <lane id=":gneJ4_4_2" index="2" disallow="tram rail_urban rail rail_electric rail_fast ship" speed="27.78" length="8.42" shape="5894.34,8498.62 5894.59,8501.01 5894.96,8502.62 5895.33,8504.23 5895.55,8506.62"/>
        <lane id=":gneJ4_4_3" index="3" disallow="tram rail_urban rail rail_electric rail_fast ship" speed="27.78" length="8.42" shape="5891.14,8498.77 5891.39,8501.14 5891.76,8502.75 5892.13,8504.36 5892.36,8506.74"/>
    </edge>
    <edge id=":gneJ4_8" function="internal">
        <lane id=":gneJ4_8_0" index="0" disallow="tram rail_urban rail rail_electric rail_fast ship" speed="3.64" length="4.65" shape="5891.14,8498.77 5890.40,8500.00 5889.63,8500.43 5888.81,8500.07 5887.96,8498.91"/>
    </edge>
    <edge id=":mm1_0" function="internal">
        <lane id=":mm1_0_0" index="0" disallow="tram rail_urban rail rail_electric rail_fast ship" speed="6.33" length="9.04" shape="5869.38,8372.73 5868.91,8370.27 5867.76,8368.62 5865.93,8367.77 5863.43,8367.74"/>
    </edge>
    <edge id=":mm1_1" function="internal">
        <lane id=":mm1_1_0" index="0" disallow="tram rail_urban rail rail_electric rail_fast ship" speed="7.86" length="14.52" shape="5872.58,8372.59 5871.82,8368.63 5869.98,8365.98 5867.04,8364.62 5863.02,8364.57"/>
    </edge>
    <edge id=":mm1_2" function="internal">
        <lane id=":mm1_2_0" index="0" disallow="tram rail_urban rail rail_electric rail_fast ship" speed="27.78" length="24.90" shape="5872.58,8372.59 5872.74,8365.24 5873.58,8360.23 5874.39,8355.21 5874.43,8347.87"/>
        <lane id=":mm1_2_1" index="1" disallow="tram rail_urban rail rail_electric rail_fast ship" speed="27.78" length="24.90" shape="5875.78,8372.44 5875.93,8365.08 5876.78,8360.05 5877.58,8355.03 5877.63,8347.67"/>
        <lane id=":mm1_2_2" index="2" disallow="tram rail_urban rail rail_electric rail_fast ship" speed="27.78" length="24.90" shape="5878.97,8372.29 5879.13,8364.92 5879.97,8359.88 5880.78,8354.84 5880.82,8347.47"/>
    </edge>
    <edge id=":mm1_5" function="internal">
        <lane id=":mm1_5_0" index="0" disallow="tram rail_urban rail rail_electric rail_fast ship" speed="11.21" length="26.65" shape="5882.17,8372.15 5883.07,8366.21 5886.37,8361.57 5892.07,8358.25 5900.18,8356.23"/>
    </edge>
    <edge id=":mm1_6" function="internal">
        <lane id=":mm1_6_0" index="0" disallow="tram rail_urban rail rail_electric rail_fast ship" speed="8.41" length="14.59" shape="5901.10,8362.56 5896.86,8363.67 5893.88,8365.56 5892.16,8368.24 5891.71,8371.71"/>
    </edge>
    <edge id=":mm1_7" function="internal">
        <lane id=":mm1_7_0" index="0" disallow="tram rail_urban rail rail_electric rail_fast ship" speed="10.49" length="26.74" shape="5900.64,8359.40 5892.31,8359.69 5886.23,8357.80 5882.40,8353.73 5880.82,8347.47"/>
    </edge>
    <edge id=":mm1_8" function="internal">
        <lane id=":mm1_8_0" index="0" disallow="tram rail_urban rail rail_electric rail_fast ship" speed="3.65" length="4.67" shape="5900.64,8359.40 5899.34,8358.78 5898.83,8358.05 5899.11,8357.20 5900.18,8356.23"/>
    </edge>
    <edge id=":mm1_9" function="internal">
        <lane id=":mm1_9_0" index="0" disallow="tram rail_urban rail rail_electric rail_fast ship" speed="6.70" length="10.25" shape="5893.58,8346.67 5894.14,8349.78 5895.34,8351.88 5897.20,8352.98 5899.71,8353.07"/>
    </edge>
    <edge id=":mm1_10" function="internal">
        <lane id=":mm1_10_0" index="0" disallow="tram rail_urban rail rail_electric rail_fast ship" speed="27.78" length="24.92" shape="5890.39,8346.87 5891.71,8371.71"/>
        <lane id=":mm1_10_1" index="1" disallow="tram rail_urban rail rail_electric rail_fast ship" speed="27.78" length="24.92" shape="5887.19,8347.07 5888.51,8371.85"/>
        <lane id=":mm1_10_2" index="2" disallow="tram rail_urban rail rail_electric rail_fast ship" speed="27.78" length="24.92" shape="5887.19,8347.07 5887.15,8354.48 5886.34,8359.53 5885.48,8364.59 5885.32,8372.00"/>
    </edge>
    <edge id=":mm1_13" function="internal">
        <lane id=":mm1_13_0" index="0" disallow="tram rail_urban rail rail_electric rail_fast ship" speed="11.76" length="30.24" shape="5884.00,8347.27 5883.03,8353.77 5879.21,8358.82 5872.54,8362.42 5863.02,8364.57"/>
    </edge>
    <edge id=":mm1_14" function="internal">
        <lane id=":mm1_14_0" index="0" disallow="tram rail_urban rail rail_electric rail_fast ship" speed="8.61" length="15.73" shape="5861.78,8355.05 5867.44,8353.97 5871.44,8352.41 5873.77,8350.38 5874.43,8347.87"/>
    </edge>
    <edge id=":mm1_15" function="internal">
        <lane id=":mm1_15_0" index="0" disallow="tram rail_urban rail rail_electric rail_fast ship" speed="22.22" length="37.87" shape="5862.19,8358.22 5899.71,8353.07"/>
    </edge>
    <edge id=":mm1_16" function="internal">
        <lane id=":mm1_16_0" index="0" disallow="tram rail_urban rail rail_electric rail_fast ship" speed="10.83" length="28.55" shape="5862.60,8361.39 5872.31,8360.98 5879.33,8362.61 5883.67,8366.28 5885.32,8372.00"/>
    </edge>
    <edge id=":mm1_17" function="internal">
        <lane id=":mm1_17_0" index="0" disallow="tram rail_urban rail rail_electric rail_fast ship" speed="3.65" length="4.67" shape="5862.60,8361.39 5863.90,8362.03 5864.40,8362.77 5864.10,8363.62 5863.02,8364.57"/>
    </edge>
    <edge id=":mm3_0" function="internal">
        <lane id=":mm3_0_0" index="0" disallow="tram rail_urban rail rail_electric rail_fast ship" speed="6.96" length="11.02" shape="5865.56,8200.40 5864.91,8197.97 5863.30,8196.38 5860.72,8195.62 5857.17,8195.71"/>
    </edge>
    <edge id=":mm3_1" function="internal">
        <lane id=":mm3_1_0" index="0" disallow="tram rail_urban rail rail_electric rail_fast ship" speed="27.78" length="20.79" shape="5868.76,8200.21 5867.90,8194.08 5866.55,8190.00 5865.18,8185.91 5864.27,8179.79"/>
        <lane id=":mm3_1_1" index="1" disallow="tram rail_urban rail rail_electric rail_fast ship" speed="27.78" length="20.79" shape="5868.76,8200.21 5867.46,8179.57"/>
        <lane id=":mm3_1_2" index="2" disallow="tram rail_urban rail rail_electric rail_fast ship" speed="27.78" length="20.79" shape="5871.95,8200.02 5870.65,8179.36"/>
    </edge>
    <edge id=":mm3_4" function="internal">
        <lane id=":mm3_4_0" index="0" disallow="tram rail_urban rail rail_electric rail_fast ship" speed="27.78" length="20.89" shape="5880.23,8178.71 5881.14,8184.87 5882.49,8188.99 5883.83,8193.10 5884.69,8199.27"/>
        <lane id=":mm3_4_1" index="1" disallow="tram rail_urban rail rail_electric rail_fast ship" speed="27.78" length="20.89" shape="5880.23,8178.71 5881.49,8199.46"/>
        <lane id=":mm3_4_2" index="2" disallow="tram rail_urban rail rail_electric rail_fast ship" speed="27.78" length="20.89" shape="5877.04,8178.93 5878.30,8199.65"/>
    </edge>
    <edge id=":mm3_7" function="internal">
        <lane id=":mm3_7_0" index="0" disallow="tram rail_urban rail rail_electric rail_fast ship" speed="10.51" length="24.11" shape="5873.85,8179.14 5873.06,8184.16 5869.96,8188.07 5864.53,8190.86 5856.77,8192.54"/>
    </edge>
    <edge id=":mm3_8" function="internal">
        <lane id=":mm3_8_0" index="0" disallow="tram rail_urban rail rail_electric rail_fast ship" speed="6.64" length="9.03" shape="5855.98,8186.18 5858.35,8185.54 5859.99,8184.30 5860.90,8182.45 5861.08,8180.00"/>
    </edge>
    <edge id=":mm3_9" function="internal">
        <lane id=":mm3_9_0" index="0" disallow="tram rail_urban rail rail_electric rail_fast ship" speed="10.14" length="24.60" shape="5856.38,8189.36 5864.29,8189.17 5870.05,8190.85 5873.65,8194.41 5875.10,8199.84"/>
    </edge>
    <edge id=":mm3_10" function="internal">
        <lane id=":mm3_10_0" index="0" disallow="tram rail_urban rail rail_electric rail_fast ship" speed="3.65" length="4.67" shape="5856.38,8189.36 5857.67,8190.00 5858.16,8190.75 5857.87,8191.59 5856.77,8192.54"/>
    </edge>
    <edge id=":mm4_0" function="internal">
        <lane id=":mm4_0_0" index="0" disallow="tram rail_urban rail rail_electric rail_fast ship" speed="6.37" length="9.04" shape="5841.15,7884.18 5840.63,7881.74 5839.45,7880.10 5837.61,7879.27 5835.11,7879.25"/>
    </edge>
    <edge id=":mm4_1" function="internal">
        <lane id=":mm4_1_0" index="0" disallow="tram rail_urban rail rail_electric rail_fast ship" speed="27.78" length="21.30" shape="5844.35,7883.97 5842.35,7862.95"/>
        <lane id=":mm4_1_1" index="1" disallow="tram rail_urban rail rail_electric rail_fast ship" speed="27.78" length="21.30" shape="5847.54,7883.75 5845.53,7862.55"/>
        <lane id=":mm4_1_2" index="2" disallow="tram rail_urban rail rail_electric rail_fast ship" speed="27.78" length="21.30" shape="5850.73,7883.54 5848.70,7862.15"/>
    </edge>
    <edge id=":mm4_4" function="internal">
        <lane id=":mm4_4_0" index="0" disallow="tram rail_urban rail rail_electric rail_fast ship" speed="27.78" length="22.26" shape="5861.40,7860.56 5861.71,7867.16 5861.09,7871.70 5860.36,7876.26 5860.31,7882.89"/>
        <lane id=":mm4_4_1" index="1" disallow="tram rail_urban rail rail_electric rail_fast ship" speed="27.78" length="22.26" shape="5858.23,7860.96 5858.53,7867.51 5857.91,7872.01 5857.17,7876.53 5857.12,7883.11"/>
        <lane id=":mm4_4_2" index="2" disallow="tram rail_urban rail rail_electric rail_fast ship" speed="27.78" length="22.26" shape="5855.05,7861.36 5855.35,7867.85 5854.72,7872.32 5853.98,7876.80 5853.92,7883.32"/>
    </edge>
    <edge id=":mm4_7" function="internal">
        <lane id=":mm4_7_0" index="0" disallow="tram rail_urban rail rail_electric rail_fast ship" speed="10.52" length="25.10" shape="5851.88,7861.76 5851.36,7867.07 5848.32,7871.23 5842.76,7874.24 5834.68,7876.08"/>
    </edge>
    <edge id=":mm4_8" function="internal">
        <lane id=":mm4_8_0" index="0" disallow="tram rail_urban rail rail_electric rail_fast ship" speed="7.48" length="12.19" shape="5833.82,7869.73 5837.82,7868.84 5840.57,7867.41 5842.08,7865.45 5842.35,7862.95"/>
    </edge>
    <edge id=":mm4_9" function="internal">
        <lane id=":mm4_9_0" index="0" disallow="tram rail_urban rail rail_electric rail_fast ship" speed="10.31" length="25.48" shape="5834.25,7872.91 5842.53,7872.60 5848.57,7874.24 5852.37,7877.81 5853.92,7883.32"/>
    </edge>
    <edge id=":mm4_10" function="internal">
        <lane id=":mm4_10_0" index="0" disallow="tram rail_urban rail rail_electric rail_fast ship" speed="3.65" length="4.67" shape="5834.25,7872.91 5835.55,7873.54 5836.05,7874.28 5835.76,7875.12 5834.68,7876.08"/>
    </edge>
    <edge id=":mu3_0" function="internal">
        <lane id=":mu3_0_0" index="0" disallow="tram rail_urban rail rail_electric rail_fast ship" speed="7.55" length="12.32" shape="5883.00,8629.86 5882.55,8625.73 5881.43,8622.79 5879.65,8621.03 5877.20,8620.45"/>
    </edge>
    <edge id=":mu3_1" function="internal">
        <lane id=":mu3_1_0" index="0" disallow="tram rail_urban rail rail_electric rail_fast ship" speed="27.78" length="28.10" shape="5886.20,8629.77 5886.49,8621.47 5887.44,8615.81 5888.35,8610.15 5888.55,8601.85"/>
        <lane id=":mu3_1_1" index="1" disallow="tram rail_urban rail rail_electric rail_fast ship" speed="27.78" length="28.10" shape="5889.40,8629.69 5889.69,8621.38 5890.64,8615.71 5891.55,8610.05 5891.75,8601.74"/>
    </edge>
    <edge id=":mu3_3" function="internal">
        <lane id=":mu3_3_0" index="0" disallow="tram rail_urban rail rail_electric rail_fast ship" speed="10.88" length="27.84" shape="5892.60,8629.61 5893.63,8622.78 5897.10,8617.93 5903.01,8615.07 5911.37,8614.18"/>
    </edge>
    <edge id=":mu3_4" function="internal">
        <lane id=":mu3_4_0" index="0" disallow="tram rail_urban rail rail_electric rail_fast ship" speed="3.95" length="5.85" shape="5892.60,8629.61 5893.56,8628.08 5894.55,8627.56 5895.56,8628.03 5896.60,8629.51"/>
    </edge>
    <edge id=":mu3_5" function="internal">
        <lane id=":mu3_5_0" index="0" disallow="tram rail_urban rail rail_electric rail_fast ship" speed="7.12" length="11.32" shape="5911.26,8623.78 5907.59,8624.09 5904.99,8625.12 5903.46,8626.88 5903.00,8629.34"/>
    </edge>
    <edge id=":mu3_6" function="internal">
        <lane id=":mu3_6_0" index="0" disallow="tram rail_urban rail rail_electric rail_fast ship" speed="13.89" length="34.10" shape="5911.30,8620.58 5877.20,8620.45"/>
    </edge>
    <edge id=":mu3_7" function="internal">
        <lane id=":mu3_7_0" index="0" disallow="tram rail_urban rail rail_electric rail_fast ship" speed="11.29" length="16.22" shape="5911.33,8617.38 5902.98,8616.32 5896.93,8613.37 5896.28,8612.52"/>
    </edge>
    <edge id=":mu3_8" function="internal">
        <lane id=":mu3_8_0" index="0" disallow="tram rail_urban rail rail_electric rail_fast ship" speed="3.65" length="4.67" shape="5911.33,8617.38 5910.14,8616.57 5909.75,8615.76 5910.16,8614.97 5911.37,8614.18"/>
    </edge>
    <edge id=":mu3_19" function="internal">
        <lane id=":mu3_19_0" index="0" disallow="tram rail_urban rail rail_electric rail_fast ship" speed="11.29" length="11.99" shape="5896.28,8612.52 5893.19,8608.50 5891.75,8601.74"/>
    </edge>
    <edge id=":mu3_9" function="internal">
        <lane id=":mu3_9_0" index="0" disallow="tram rail_urban rail rail_electric rail_fast ship" speed="7.71" length="12.60" shape="5905.51,8601.23 5906.02,8605.48 5907.17,8608.51 5908.96,8610.35 5911.40,8610.98"/>
    </edge>
    <edge id=":mu3_10" function="internal">
        <lane id=":mu3_10_0" index="0" disallow="tram rail_urban rail rail_electric rail_fast ship" speed="20.84" length="28.06" shape="5902.32,8601.35 5903.00,8629.34"/>
        <lane id=":mu3_10_1" index="1" disallow="tram rail_urban rail rail_electric rail_fast ship" speed="20.84" length="28.06" shape="5899.12,8601.47 5899.80,8629.43"/>
        <lane id=":mu3_10_2" index="2" disallow="tram rail_urban rail rail_electric rail_fast ship" speed="20.84" length="28.06" shape="5899.12,8601.47 5898.90,8609.80 5897.92,8615.49 5896.92,8621.17 5896.60,8629.51"/>
    </edge>
    <edge id=":mu3_13" function="internal">
        <lane id=":mu3_13_0" index="0" disallow="tram rail_urban rail rail_electric rail_fast ship" speed="10.91" length="27.96" shape="5895.92,8601.59 5894.97,8608.41 5891.53,8613.30 5885.60,8616.25 5877.19,8617.25"/>
    </edge>
    <edge id=":mu3_14" function="internal">
        <lane id=":mu3_14_0" index="0" disallow="tram rail_urban rail rail_electric rail_fast ship" speed="7.13" length="11.32" shape="5877.15,8607.65 5880.82,8607.28 5883.41,8606.22 5884.92,8604.44 5885.35,8601.97"/>
    </edge>
    <edge id=":mu3_15" function="internal">
        <lane id=":mu3_15_0" index="0" disallow="tram rail_urban rail rail_electric rail_fast ship" speed="13.89" length="34.24" shape="5877.17,8610.85 5911.40,8610.98"/>
    </edge>
    <edge id=":mu3_16" function="internal">
        <lane id=":mu3_16_0" index="0" disallow="tram rail_urban rail rail_electric rail_fast ship" speed="12.09" length="21.93" shape="5877.17,8610.85 5886.89,8611.98 5893.90,8615.45 5896.47,8618.92"/>
    </edge>
    <edge id=":mu3_17" function="internal">
        <lane id=":mu3_17_0" index="0" disallow="tram rail_urban rail rail_electric rail_fast ship" speed="11.16" length="16.37" shape="5877.18,8614.05 5885.53,8614.99 5891.55,8617.88 5892.33,8618.91"/>
    </edge>
    <edge id=":mu3_18" function="internal">
        <lane id=":mu3_18_0" index="0" disallow="tram rail_urban rail rail_electric rail_fast ship" speed="3.65" length="4.67" shape="5877.18,8614.05 5878.38,8614.85 5878.78,8615.65 5878.39,8616.45 5877.19,8617.25"/>
    </edge>
    <edge id=":mu3_20" function="internal">
        <lane id=":mu3_20_0" index="0" disallow="tram rail_urban rail rail_electric rail_fast ship" speed="12.09" length="11.23" shape="5896.47,8618.92 5898.21,8621.27 5899.80,8629.43"/>
    </edge>
    <edge id=":mu3_21" function="internal">
        <lane id=":mu3_21_0" index="0" disallow="tram rail_urban rail rail_electric rail_fast ship" speed="11.16" length="11.72" shape="5892.33,8618.91 5895.24,8622.72 5896.60,8629.51"/>
    </edge>
    <edge id=":rb3_0" function="internal">
        <lane id=":rb3_0_0" index="0" disallow="tram rail_urban rail rail_electric rail_fast ship" speed="6.43" length="9.03" shape="5781.25,7462.60 5780.55,7460.22 5779.25,7458.66 5777.35,7457.93 5774.87,7458.02"/>
    </edge>
    <edge id=":rb3_1" function="internal">
        <lane id=":rb3_1_0" index="0" disallow="tram rail_urban rail rail_electric rail_fast ship" speed="27.78" length="21.42" shape="5784.42,7462.14 5784.01,7455.85 5784.47,7451.49 5784.89,7447.14 5784.36,7440.87"/>
        <lane id=":rb3_1_1" index="1" disallow="tram rail_urban rail rail_electric rail_fast ship" speed="27.78" length="21.42" shape="5787.58,7461.68 5787.17,7455.37 5787.63,7451.00 5788.05,7446.63 5787.52,7440.34"/>
        <lane id=":rb3_1_2" index="2" disallow="tram rail_urban rail rail_electric rail_fast ship" speed="27.78" length="21.42" shape="5790.75,7461.22 5790.33,7454.89 5790.79,7450.51 5791.21,7446.13 5790.68,7439.82"/>
    </edge>
    <edge id=":rb3_4" function="internal">
        <lane id=":rb3_4_0" index="0" disallow="tram rail_urban rail rail_electric rail_fast ship" speed="3.64" length="4.65" shape="5793.92,7460.76 5794.53,7459.46 5795.26,7458.95 5796.11,7459.23 5797.07,7460.30"/>
    </edge>