<routes>
    <vType id="type1" length="5" accel="5" decel="10" maxSpeed="70"/>

    <flow id="f_0_0_0" departPos="random_free" begin="0" end="600" vehsPerHour="60" type="type1" from="rb2_rb4" to="mu4_mu2" />
    <flow id="f_0_1_0" departPos="random_free" begin="0" end="600" vehsPerHour="60" type="type1" from="rb2_rb4" to="-lb2_rb3"/>
    <flow id="f_0_2_0" departPos="random_free" begin="0" end="600" vehsPerHour="60" type="type1" from="rb2_rb4" to="rb3_rb1.38" />
    <flow id="f_0_3_0" departPos="random_free" begin="0" end="600" vehsPerHour="60" type="type1" from="rb2_rb4" to="mm4_lb3" />
    <flow id="f_0_4_0" departPos="random_free" begin="0" end="600" vehsPerHour="60" type="type1" from="rb2_rb4" to="mm2_ru4" />
    <flow id="f_0_5_0" departPos="random_free" begin="0" end="600" vehsPerHour="60" type="type1" from="rb2_rb4" to="mm1_lm2" />
    <flow id="f_0_6_0" departPos="random_free" begin="0" end="600" vehsPerHour="60" type="type1" from="rb2_rb4" to="-ru3_mu4"/>
    <flow id="f_0_7_0" departPos="random_free" begin="0" end="600" vehsPerHour="60" type="type1" from="rb2_rb4" to="-lm2_mu3"/>
    <flow id="f_1_0_0" departPos="random_free" begin="0" end="600" vehsPerHour="12" type="type1" from="lb2_rb3.131" to="mu4_mu2" />
    <flow id="f_1_1_0" departPos="random_free" begin="0" end="600" vehsPerHour="12" type="type1" from="lb2_rb3.131" to="-lb2_rb3"/>
    <flow id="f_1_2_0" departPos="random_free" begin="0" end="600" vehsPerHour="12" type="type1" from="lb2_rb3.131" to="rb3_rb1.38" />
    <flow id="f_1_3_0" departPos="random_free" begin="0" end="600" vehsPerHour="12" type="type1" from="lb2_rb3.131" to="mm4_lb3" />
    <flow id="f_1_4_0" departPos="random_free" begin="0" end="600" vehsPerHour="12" type="type1" from="lb2_rb3.131" to="mm2_ru4" />
    <flow id="f_1_5_0" departPos="random_free" begin="0" end="600" vehsPerHour="12" type="type1" from="lb2_rb3.131" to="mm1_lm2" />
    <flow id="f_1_6_0" departPos="random_free" begin="0" end="600" vehsPerHour="12" type="type1" from="lb2_rb3.131" to="-ru3_mu4"/>
    <flow id="f_1_7_0" departPos="random_free" begin="0" end="600" vehsPerHour="12" type="type1" from="lb2_rb3.131" to="-lm2_mu3"/>
    <flow id="f_2_0_0" departPos="random_free" begin="0" end="600" vehsPerHour="12" type="type1" from="-mm4_lb3.137" to="mu4_mu2" />
    <flow id="f_2_1_0" departPos="random_free" begin="0" end="600" vehsPerHour="12" type="type1" from="-mm4_lb3.137" to="-lb2_rb3"/>
    <flow id="f_2_2_0" departPos="random_free" begin="0" end="600" vehsPerHour="12" type="type1" from="-mm4_lb3.137" to="rb3_rb1.38" />
    <flow id="f_2_3_0" departPos="random_free" begin="0" end="600" vehsPerHour="12" type="type1" from="-mm4_lb3.137" to="mm4_lb3" />
    <flow id="f_2_4_0" departPos="random_free" begin="0" end="600" vehsPerHour="12" type="type1" from="-mm4_lb3.137" to="mm2_ru4" />
    <flow id="f_2_5_0" departPos="random_free" begin="0" end="600" vehsPerHour="12" type="type1" from="-mm4_lb3.137" to="mm1_lm2" />
    <flow id="f_2_6_0" departPos="random_free" begin="0" end="600" vehsPerHour="12" type="type1" from="-mm4_lb3.137" to="-ru3_mu4"/>
    <flow id="f_2_7_0" departPos="random_free" begin="0" end="600" vehsPerHour="12" type="type1" from="-mm4_lb3.137" to="-lm2_mu3"/>
    <flow id="f_3_0_0" departPos="random_free" begin="0" end="600" vehsPerHour="6" type="type1" from="-mm3_lm1.484" to="mu4_mu2" />
    <flow id="f_3_1_0" departPos="random_free" begin="0" end="600" vehsPerHour="6" type="type1" from="-mm3_lm1.484" to="-lb2_rb3"/>
    <flow id="f_3_2_0" departPos="random_free" begin="0" end="600" vehsPerHour="6" type="type1" from="-mm3_lm1.484" to="rb3_rb1.38" />
    <flow id="f_3_3_0" departPos="random_free" begin="0" end="600" vehsPerHour="6" type="type1" from="-mm3_lm1.484" to="mm4_lb3" />
    <flow id="f_3_4_0" departPos="random_free" begin="0" end="600" vehsPerHour="6" type="type1" from="-mm3_lm1.484" to="mm2_ru4" />
    <flow id="f_3_5_0" departPos="random_free" begin="0" end="600" vehsPerHour="6" type="type1" from="-mm3_lm1.484" to="mm1_lm2" />
    <flow id="f_3_6_0" departPos="random_free" begin="0" end="600" vehsPerHour="6" type="type1" from="-mm3_lm1.484" to="-ru3_mu4"/>
    <flow id="f_3_7_0" departPos="random_free" begin="0" end="600" vehsPerHour="6" type="type1" from="-mm3_lm1.484" to="-lm2_mu3"/>
    <flow id="f_4_0_0" departPos="random_free" begin="0" end="600" vehsPerHour="12" type="type1" from="-mm1_lm2.463" to="mu4_mu2" />
    <flow id="f_4_1_0" departPos="random_free" begin="0" end="600" vehsPerHour="12" type="type1" from="-mm1_lm2.463" to="-lb2_rb3"/>
    <flow id="f_4_2_0" departPos="random_free" begin="0" end="600" vehsPerHour="12" type="type1" from="-mm1_lm2.463" to="rb3_rb1.38" />
    <flow id="f_4_3_0" departPos="random_free" begin="0" end="600" vehsPerHour="12" type="type1" from="-mm1_lm2.463" to="mm4_lb3" />
    <flow id="f_4_4_0" departPos="random_free" begin="0" end="600" vehsPerHour="12" type="type1" from="-mm1_lm2.463" to="mm2_ru4" />
    <flow id="f_4_5_0" departPos="random_free" begin="0" end="600" vehsPerHour="12" type="type1" from="-mm1_lm2.463" to="mm1_lm2" />
    <flow id="f_4_6_0" departPos="random_free" begin="0" end="600" vehsPerHour="12" type="type1" from="-mm1_lm2.463" to="-ru3_mu4"/>
    <flow id="f_4_7_0" departPos="random_free" begin="0" end="600" vehsPerHour="12" type="type1" from="-mm1_lm2.463" to="-lm2_mu3"/>
    <flow id="f_5_0_0" departPos="random_free" begin="0" end="600" vehsPerHour="12" type="type1" from="-mm2_ru4.239" to="mu4_mu2" />
    <flow id="f_5_1_0" departPos="random_free" begin="0" end="600" vehsPerHour="12" type="type1" from="-mm2_ru4.239" to="-lb2_rb3"/>
    <flow id="f_5_2_0" departPos="random_free" begin="0" end="600" vehsPerHour="12" type="type1" from="-mm2_ru4.239" to="rb3_rb1.38" />
    <flow id="f_5_3_0" departPos="random_free" begin="0" end="600" vehsPerHour="12" type="type1" from="-mm2_ru4.239" to="mm4_lb3" />
    <flow id="f_5_4_0" departPos="random_free" begin="0" end="600" vehsPerHour="12" type="type1" from="-mm2_ru4.239" to="mm2_ru4" />
    <flow id="f_5_5_0" departPos="random_free" begin="0" end="600" vehsPerHour="12" type="type1" from="-mm2_ru4.239" to="mm1_lm2" />
    <flow id="f_5_6_0" departPos="random_free" begin="0" end="600" vehsPerHour="12" type="type1" from="-mm2_ru4.239" to="-ru3_mu4"/>
    <flow id="f_5_7_0" departPos="random_free" begin="0" end="600" vehsPerHour="12" type="type1" from="-mm2_ru4.239" to="-lm2_mu3"/>
    <flow id="f_6_0_0" departPos="random_free" begin="0" end="600" vehsPerHour="6" type="type1" from="lm2_mu3.525" to="mu4_mu2" />
    <flow id="f_6_1_0" departPos="random_free" begin="0" end="600" vehsPerHour="6" type="type1" from="lm2_mu3.525" to="-lb2_rb3"/>
    <flow id="f_6_2_0" departPos="random_free" begin="0" end="600" vehsPerHour="6" type="type1" from="lm2_mu3.525" to="rb3_rb1.38" />
    <flow id="f_6_3_0" departPos="random_free" begin="0" end="600" vehsPerHour="6" type="type1" from="lm2_mu3.525" to="mm4_lb3" />
    <flow id="f_6_4_0" departPos="random_free" begin="0" end="600" vehsPerHour="6" type="type1" from="lm2_mu3.525" to="mm2_ru4" />
    <flow id="f_6_5_0" departPos="random_free" begin="0" end="600" vehsPerHour="6" type="type1" from="lm2_mu3.525" to="mm1_lm2" />
    <flow id="f_6_6_0" departPos="random_free" begin="0" end="600" vehsPerHour="6" type="type1" from="lm2_mu3.525" to="-ru3_mu4"/>
    <flow id="f_6_7_0" departPos="random_free" begin="0" end="600" vehsPerHour="6" type="type1" from="lm2_mu3.525" to="-lm2_mu3"/>
    <flow id="f_7_0_0" departPos="random_free" begin="0" end="600" vehsPerHour="6" type="type1" from="ru3_mu4" to="mu4_mu2" />
    <flow id="f_7_1_0" departPos="random_free" begin="0" end="600" vehsPerHour="6" type="type1" from="ru3_mu4" to="-lb2_rb3"/>
    <flow id="f_7_2_0" departPos="random_free" begin="0" end="600" vehsPerHour="6" type="type1" from="ru3_mu4" to="rb3_rb1.38" />
    <flow id="f_7_3_0" departPos="random_free" begin="0" end="600" vehsPerHour="6" type="type1" from="ru3_mu4" to="mm4_lb3" />
    <flow id="f_7_4_0" departPos="random_free" begin="0" end="600" vehsPerHour="6" type="type1" from="ru3_mu4" to="mm2_ru4" />
    <flow id="f_7_5_0" departPos="random_free" begin="0" end="600" vehsPerHour="6" type="type1" from="ru3_mu4" to="mm1_lm2" />
    <flow id="f_7_6_0" departPos="random_free" begin="0" end="600" vehsPerHour="6" type="type1" from="ru3_mu4" to="-ru3_mu4"/>
    <flow id="f_7_7_0" departPos="random_free" begin="0" end="600" vehsPerHour="6" type="type1" from="ru3_mu4" to="-lm2_mu3"/>
    <flow id="f_8_0_0" departPos="random_free" begin="0" end="600" vehsPerHour="25" type="type1" from="mu1_mu3" to="mu4_mu2" />
    <flow id="f_8_1_0" departPos="random_free" begin="0" end="600" vehsPerHour="25" type="type1" from="mu1_mu3" to="-lb2_rb3"/>
    <flow id="f_8_2_0" departPos="random_free" begin="0" end="600" vehsPerHour="25" type="type1" from="mu1_mu3" to="rb3_rb1.38" />
    <flow id="f_8_3_0" departPos="random_free" begin="0" end="600" vehsPerHour="25" type="type1" from="mu1_mu3" to="mm4_lb3" />
    <flow id="f_8_4_0" departPos="random_free" begin="0" end="600" vehsPerHour="25" type="type1" from="mu1_mu3" to="mm2_ru4" />
    <flow id="f_8_5_0" departPos="random_free" begin="0" end="600" vehsPerHour="25" type="type1" from="mu1_mu3" to="mm1_lm2" />
    <flow id="f_8_6_0" departPos="random_free" begin="0" end="600" vehsPerHour="25" type="type1" from="mu1_mu3" to="-ru3_mu4"/>
    <flow id="f_8_7_0" departPos="random_free" begin="0" end="600" vehsPerHour="25" type="type1" from="mu1_mu3" to="-lm2_mu3"/>

    <flow id="f_0_0_1" departPos="random_free" begin="600" end="1200" vehsPerHour="250" type="type1" from="rb2_rb4" to="mu4_mu2" />
    <flow id="f_0_1_1" departPos="random_free" begin="600" end="1200" vehsPerHour="250" type="type1" from="rb2_rb4" to="-lb2_rb3"/>
    <flow id="f_0_2_1" departPos="random_free" begin="600" end="1200" vehsPerHour="250" type="type1" from="rb2_rb4" to="rb3_rb1.38" />
    <flow id="f_0_3_1" departPos="random_free" begin="600" end="1200" vehsPerHour="250" type="type1" from="rb2_rb4" to="mm4_lb3" />
    <flow id="f_0_4_1" departPos="random_free" begin="600" end="1200" vehsPerHour="250" type="type1" from="rb2_rb4" to="mm2_ru4" />
    <flow id="f_0_5_1" departPos="random_free" begin="600" end="1200" vehsPerHour="250" type="type1" from="rb2_rb4" to="mm1_lm2" />
    <flow id="f_0_6_1" departPos="random_free" begin="600" end="1200" vehsPerHour="250" type="type1" from="rb2_rb4" to="-ru3_mu4"/>
    <flow id="f_0_7_1" departPos="random_free" begin="600" end="1200" vehsPerHour="250" type="type1" from="rb2_rb4" to="-lm2_mu3"/>
    <flow id="f_1_0_1" departPos="random_free" begin="600" end="1200" vehsPerHour="60" type="type1" from="lb2_rb3.131" to="mu4_mu2" />
    <flow id="f_1_1_1" departPos="random_free" begin="600" end="1200" vehsPerHour="60" type="type1" from="lb2_rb3.131" to="-lb2_rb3"/>
    <flow id="f_1_2_1" departPos="random_free" begin="600" end="1200" vehsPerHour="60" type="type1" from="lb2_rb3.131" to="rb3_rb1.38" />
    <flow id="f_1_3_1" departPos="random_free" begin="600" end="1200" vehsPerHour="60" type="type1" from="lb2_rb3.131" to="mm4_lb3" />
    <flow id="f_1_4_1" departPos="random_free" begin="600" end="1200" vehsPerHour="60" type="type1" from="lb2_rb3.131" to="mm2_ru4" />
    <flow id="f_1_5_1" departPos="random_free" begin="600" end="1200" vehsPerHour="60" type="type1" from="lb2_rb3.131" to="mm1_lm2" />
    <flow id="f_1_6_1" departPos="random_free" begin="600" end="1200" vehsPerHour="60" type="type1" from="lb2_rb3.131" to="-ru3_mu4"/>
    <flow id="f_1_7_1" departPos="random_free" begin="600" end="1200" vehsPerHour="60" type="type1" from="lb2_rb3.131" to="-lm2_mu3"/>
    <flow id="f_2_0_1" departPos="random_free" begin="600" end="1200" vehsPerHour="50" type="type1" from="-mm4_lb3.137" to="mu4_mu2" />
    <flow id="f_2_1_1" departPos="random_free" begin="600" end="1200" vehsPerHour="50" type="type1" from="-mm4_lb3.137" to="-lb2_rb3"/>
    <flow id="f_2_2_1" departPos="random_free" begin="600" end="1200" vehsPerHour="50" type="type1" from="-mm4_lb3.137" to="rb3_rb1.38" />
    <flow id="f_2_3_1" departPos="random_free" begin="600" end="1200" vehsPerHour="50" type="type1" from="-mm4_lb3.137" to="mm4_lb3" />
    <flow id="f_2_4_1" departPos="random_free" begin="600" end="1200" vehsPerHour="50" type="type1" from="-mm4_lb3.137" to="mm2_ru4" />
    <flow id="f_2_5_1" departPos="random_free" begin="600" end="1200" vehsPerHour="50" type="type1" from="-mm4_lb3.137" to="mm1_lm2" />
    <flow id="f_2_6_1" departPos="random_free" begin="600" end="1200" vehsPerHour="50" type="type1" from="-mm4_lb3.137" to="-ru3_mu4"/>
    <flow id="f_2_7_1" departPos="random_free" begin="600" end="1200" vehsPerHour="50" type="type1" from="-mm4_lb3.137" to="-lm2_mu3"/>
    <flow id="f_3_0_1" departPos="random_free" begin="600" end="1200" vehsPerHour="25" type="type1" from="-mm3_lm1.484" to="mu4_mu2" />
    <flow id="f_3_1_1" departPos="random_free" begin="600" end="1200" vehsPerHour="25" type="type1" from="-mm3_lm1.484" to="-lb2_rb3"/>
    <flow id="f_3_2_1" departPos="random_free" begin="600" end="1200" vehsPerHour="25" type="type1" from="-mm3_lm1.484" to="rb3_rb1.38" />
    <flow id="f_3_3_1" departPos="random_free" begin="600" end="1200" vehsPerHour="25" type="type1" from="-mm3_lm1.484" to="mm4_lb3" />
    <flow id="f_3_4_1" departPos="random_free" begin="600" end="1200" vehsPerHour="25" type="type1" from="-mm3_lm1.484" to="mm2_ru4" />
    <flow id="f_3_5_1" departPos="random_free" begin="600" end="1200" vehsPerHour="25" type="type1" from="-mm3_lm1.484" to="mm1_lm2" />
    <flow id="f_3_6_1" departPos="random_free" begin="600" end="1200" vehsPerHour="25" type="type1" from="-mm3_lm1.484" to="-ru3_mu4"/>
    <flow id="f_3_7_1" departPos="random_free" begin="600" end="1200" vehsPerHour="25" type="type1" from="-mm3_lm1.484" to="-lm2_mu3"/>
    <flow id="f_4_0_1" departPos="random_free" begin="600" end="1200" vehsPerHour="50" type="type1" from="-mm1_lm2.463" to="mu4_mu2" />
    <flow id="f_4_1_1" departPos="random_free" begin="600" end="1200" vehsPerHour="50" type="type1" from="-mm1_lm2.463" to="-lb2_rb3"/>
    <flow id="f_4_2_1" departPos="random_free" begin="600" end="1200" vehsPerHour="50" type="type1" from="-mm1_lm2.463" to="rb3_rb1.38" />
    <flow id="f_4_3_1" departPos="random_free" begin="600" end="1200" vehsPerHour="50" type="type1" from="-mm1_lm2.463" to="mm4_lb3" />
    <flow id="f_4_4_1" departPos="random_free" begin="600" end="1200" vehsPerHour="50" type="type1" from="-mm1_lm2.463" to="mm2_ru4" />
    <flow id="f_4_5_1" departPos="random_free" begin="600" end="1200" vehsPerHour="50" type="type1" from="-mm1_lm2.463" to="mm1_lm2" />
    <flow id="f_4_6_1" departPos="random_free" begin="600" end="1200" vehsPerHour="50" type="type1" from="-mm1_lm2.463" to="-ru3_mu4"/>
    <flow id="f_4_7_1" departPos="random_free" begin="600" end="1200" vehsPerHour="50" type="type1" from="-mm1_lm2.463" to="-lm2_mu3"/>
    <flow id="f_5_0_1" departPos="random_free" begin="600" end="1200" vehsPerHour="60" type="type1" from="-mm2_ru4.239" to="mu4_mu2" />
    <flow id="f_5_1_1" departPos="random_free" begin="600" end="1200" vehsPerHour="60" type="type1" from="-mm2_ru4.239" to="-lb2_rb3"/>
    <flow id="f_5_2_1" departPos="random_free" begin="600" end="1200" vehsPerHour="60" type="type1" from="-mm2_ru4.239" to="rb3_rb1.38" />
    <flow id="f_5_3_1" departPos="random_free" begin="600" end="1200" vehsPerHour="60" type="type1" from="-mm2_ru4.239" to="mm4_lb3" />
    <flow id="f_5_4_1" departPos="random_free" begin="600" end="1200" vehsPerHour="60" type="type1" from="-mm2_ru4.239" to="mm2_ru4" />
    <flow id="f_5_5_1" departPos="random_free" begin="600" end="1200" vehsPerHour="60" type="type1" from="-mm2_ru4.239" to="mm1_lm2" />
    <flow id="f_5_6_1" departPos="random_free" begin="600" end="1200" vehsPerHour="60" type="type1" from="-mm2_ru4.239" to="-ru3_mu4"/>
    <flow id="f_5_7_1" departPos="random_free" begin="600" end="1200" vehsPerHour="60" type="type1" from="-mm2_ru4.239" to="-lm2_mu3"/>
    <flow id="f_6_0_1" departPos="random_free" begin="600" end="1200" vehsPerHour="25" type="type1" from="lm2_mu3.525" to="mu4_mu2" />
    <flow id="f_6_1_1" departPos="random_free" begin="600" end="1200" vehsPerHour="25" type="type1" from="lm2_mu3.525" to="-lb2_rb3"/>
    <flow id="f_6_2_1" departPos="random_free" begin="600" end="1200" vehsPerHour="25" type="type1" from="lm2_mu3.525" to="rb3_rb1.38" />
    <flow id="f_6_3_1" departPos="random_free" begin="600" end="1200" vehsPerHour="25" type="type1" from="lm2_mu3.525" to="mm4_lb3" />
    <flow id="f_6_4_1" departPos="random_free" begin="600" end="1200" vehsPerHour="25" type="type1" from="lm2_mu3.525" to="mm2_ru4" />
    <flow id="f_6_5_1" departPos="random_free" begin="600" end="1200" vehsPerHour="25" type="type1" from="lm2_mu3.525" to="mm1_lm2" />
    <flow id="f_6_6_1" departPos="random_free" begin="600" end="1200" vehsPerHour="25" type="type1" from="lm2_mu3.525" to="-ru3_mu4"/>
    <flow id="f_6_7_1" departPos="random_free" begin="600" end="1200" vehsPerHour="25" type="type1" from="lm2_mu3.525" to="-lm2_mu3"/>
    <flow id="f_7_0_1" departPos="random_free" begin="600" end="1200" vehsPerHour="25" type="type1" from="ru3_mu4" to="mu4_mu2" />
    <flow id="f_7_1_1" departPos="random_free" begin="600" end="1200" vehsPerHour="25" type="type1" from="ru3_mu4" to="-lb2_rb3"/>
    <flow id="f_7_2_1" departPos="random_free" begin="600" end="1200" vehsPerHour="25" type="type1" from="ru3_mu4" to="rb3_rb1.38" />
    <flow id="f_7_3_1" departPos="random_free" begin="600" end="1200" vehsPerHour="25" type="type1" from="ru3_mu4" to="mm4_lb3" />
    <flow id="f_7_4_1" departPos="random_free" begin="600" end="1200" vehsPerHour="25" type="type1" from="ru3_mu4" to="mm2_ru4" />
    <flow id="f_7_5_1" departPos="random_free" begin="600" end="1200" vehsPerHour="25" type="type1" from="ru3_mu4" to="mm1_lm2" />
    <flow id="f_7_6_1" departPos="random_free" begin="600" end="1200" vehsPerHour="25" type="type1" from="ru3_mu4" to="-ru3_mu4"/>
    <flow id="f_7_7_1" departPos="random_free" begin="600" end="1200" vehsPerHour="25" type="type1" from="ru3_mu4" to="-lm2_mu3"/>
    <flow id="f_8_0_1" departPos="random_free" begin="600" end="1200" vehsPerHour="120" type="type1" from="mu1_mu3" to="mu4_mu2" />
    <flow id="f_8_1_1" departPos="random_free" begin="600" end="1200" vehsPerHour="120" type="type1" from="mu1_mu3" to="-lb2_rb3"/>
    <flow id="f_8_2_1" departPos="random_free" begin="600" end="1200" vehsPerHour="120" type="type1" from="mu1_mu3" to="rb3_rb1.38" />
    <flow id="f_8_3_1" departPos="random_free" begin="600" end="1200" vehsPerHour="120" type="type1" from="mu1_mu3" to="mm4_lb3" />
    <flow id="f_8_4_1" departPos="random_free" begin="600" end="1200" vehsPerHour="120" type="type1" from="mu1_mu3" to="mm2_ru4" />
    <flow id="f_8_5_1" departPos="random_free" begin="600" end="1200" vehsPerHour="120" type="type1" from="mu1_mu3" to="mm1_lm2" />
    <flow id="f_8_6_1" departPos="random_free" begin="600" end="1200" vehsPerHour="120" type="type1" from="mu1_mu3" to="-ru3_mu4"/>
    <flow id="f_8_7_1" departPos="random_free" begin="600" end="1200" vehsPerHour="120" type="type1" from="mu1_mu3" to="-lm2_mu3"/>

    <flow id="f_0_0_2" departPos="random_free" begin="1800" end="2400" vehsPerHour="300" type="type1" from="rb2_rb4" to="mu4_mu2" />
    <flow id="f_0_1_2" departPos="random_free" begin="1800" end="2400" vehsPerHour="300" type="type1" from="rb2_rb4" to="-lb2_rb3"/>
    <flow id="f_0_2_2" departPos="random_free" begin="1800" end="2400" vehsPerHour="300" type="type1" from="rb2_rb4" to="rb3_rb1.38" />
    <flow id="f_0_3_2" departPos="random_free" begin="1800" end="2400" vehsPerHour="300" type="type1" from="rb2_rb4" to="mm4_lb3" />
    <flow id="f_0_4_2" departPos="random_free" begin="1800" end="2400" vehsPerHour="300" type="type1" from="rb2_rb4" to="mm2_ru4" />
    <flow id="f_0_5_2" departPos="random_free" begin="1800" end="2400" vehsPerHour="300" type="type1" from="rb2_rb4" to="mm1_lm2" />
    <flow id="f_0_6_2" departPos="random_free" begin="1800" end="2400" vehsPerHour="300" type="type1" from="rb2_rb4" to="-ru3_mu4"/>
    <flow id="f_0_7_2" departPos="random_free" begin="1800" end="2400" vehsPerHour="300" type="type1" from="rb2_rb4" to="-lm2_mu3"/>
    <flow id="f_1_0_2" departPos="random_free" begin="1800" end="2400" vehsPerHour="60" type="type1" from="lb2_rb3.131" to="mu4_mu2" />
    <flow id="f_1_1_2" departPos="random_free" begin="1800" end="2400" vehsPerHour="60" type="type1" from="lb2_rb3.131" to="-lb2_rb3"/>
    <flow id="f_1_2_2" departPos="random_free" begin="1800" end="2400" vehsPerHour="60" type="type1" from="lb2_rb3.131" to="rb3_rb1.38" />
    <flow id="f_1_3_2" departPos="random_free" begin="1800" end="2400" vehsPerHour="60" type="type1" from="lb2_rb3.131" to="mm4_lb3" />
    <flow id="f_1_4_2" departPos="random_free" begin="1800" end="2400" vehsPerHour="60" type="type1" from="lb2_rb3.131" to="mm2_ru4" />
    <flow id="f_1_5_2" departPos="random_free" begin="1800" end="2400" vehsPerHour="60" type="type1" from="lb2_rb3.131" to="mm1_lm2" />
    <flow id="f_1_6_2" departPos="random_free" begin="1800" end="2400" vehsPerHour="60" type="type1" from="lb2_rb3.131" to="-ru3_mu4"/>
    <flow id="f_1_7_2" departPos="random_free" begin="1800" end="2400" vehsPerHour="60" type="type1" from="lb2_rb3.131" to="-lm2_mu3"/>
    <flow id="f_2_0_2" departPos="random_free" begin="1800" end="2400" vehsPerHour="60" type="type1" from="-mm4_lb3.137" to="mu4_mu2" />
    <flow id="f_2_1_2" departPos="random_free" begin="1800" end="2400" vehsPerHour="60" type="type1" from="-mm4_lb3.137" to="-lb2_rb3"/>
    <flow id="f_2_2_2" departPos="random_free" begin="1800" end="2400" vehsPerHour="60" type="type1" from="-mm4_lb3.137" to="rb3_rb1.38" />
    <flow id="f_2_3_2" departPos="random_free" begin="1800" end="2400" vehsPerHour="60" type="type1" from="-mm4_lb3.137" to="mm4_lb3" />
    <flow id="f_2_4_2" departPos="random_free" begin="1800" end="2400" vehsPerHour="60" type="type1" from="-mm4_lb3.137" to="mm2_ru4" />
    <flow id="f_2_5_2" departPos="random_free" begin="1800" end="2400" vehsPerHour="60" type="type1" from="-mm4_lb3.137" to="mm1_lm2" />
    <flow id="f_2_6_2" departPos="random_free" begin="1800" end="2400" vehsPerHour="60" type="type1" from="-mm4_lb3.137" to="-ru3_mu4"/>
    <flow id="f_2_7_2" departPos="random_free" begin="1800" end="2400" vehsPerHour="60" type="type1" from="-mm4_lb3.137" to="-lm2_mu3"/>
    <flow id="f_3_0_2" departPos="random_free" begin="1800" end="2400" vehsPerHour="50" type="type1" from="-mm3_lm1.484" to="mu4_mu2" />
    <flow id="f_3_1_2" departPos="random_free" begin="1800" end="2400" vehsPerHour="50" type="type1" from="-mm3_lm1.484" to="-lb2_rb3"/>
    <flow id="f_3_2_2" departPos="random_free" begin="1800" end="2400" vehsPerHour="50" type="type1" from="-mm3_lm1.484" to="rb3_rb1.38" />
    <flow id="f_3_3_2" departPos="random_free" begin="1800" end="2400" vehsPerHour="50" type="type1" from="-mm3_lm1.484" to="mm4_lb3" />
    <flow id="f_3_4_2" departPos="random_free" begin="1800" end="2400" vehsPerHour="50" type="type1" from="-mm3_lm1.484" to="mm2_ru4" />
    <flow id="f_3_5_2" departPos="random_free" begin="1800" end="2400" vehsPerHour="50" type="type1" from="-mm3_lm1.484" to="mm1_lm2" />
    <flow id="f_3_6_2" departPos="random_free" begin="1800" end="2400" vehsPerHour="50" type="type1" from="-mm3_lm1.484" to="-ru3_mu4"/>
    <flow id="f_3_7_2" departPos="random_free" begin="1800" end="2400" vehsPerHour="50" type="type1" from="-mm3_lm1.484" to="-lm2_mu3"/>
    <flow id="f_4_0_2" departPos="random_free" begin="1800" end="2400" vehsPerHour="60" type="type1" from="-mm1_lm2.463" to="mu4_mu2" />
    <flow id="f_4_1_2" departPos="random_free" begin="1800" end="2400" vehsPerHour="60" type="type1" from="-mm1_lm2.463" to="-lb2_rb3"/>
    <flow id="f_4_2_2" departPos="random_free" begin="1800" end="2400" vehsPerHour="60" type="type1" from="-mm1_lm2.463" to="rb3_rb1.38" />
    <flow id="f_4_3_2" departPos="random_free" begin="1800" end="2400" vehsPerHour="60" type="type1" from="-mm1_lm2.463" to="mm4_lb3" />
    <flow id="f_4_4_2" departPos="random_free" begin="1800" end="2400" vehsPerHour="60" type="type1" from="-mm1_lm2.463" to="mm2_ru4" />
    <flow id="f_4_5_2" departPos="random_free" begin="1800" end="2400" vehsPerHour="60" type="type1" from="-mm1_lm2.463" to="mm1_lm2" />
    <flow id="f_4_6_2" departPos="random_free" begin="1800" end="2400" vehsPerHour="60" type="type1" from="-mm1_lm2.463" to="-ru3_mu4"/>
    <flow id="f_4_7_2" departPos="random_free" begin="1800" end="2400" vehsPerHour="60" type="type1" from="-mm1_lm2.463" to="-lm2_mu3"/>
    <flow id="f_5_0_2" departPos="random_free" begin="1800" end="2400" vehsPerHour="60" type="type1" from="-mm2_ru4.239" to="mu4_mu2" />
    <flow id="f_5_1_2" departPos="random_free" begin="1800" end="2400" vehsPerHour="60" type="type1" from="-mm2_ru4.239" to="-lb2_rb3"/>
    <flow id="f_5_2_2" departPos="random_free" begin="1800" end="2400" vehsPerHour="60" type="type1" from="-mm2_ru4.239" to="rb3_rb1.38" />
    <flow id="f_5_3_2" departPos="random_free" begin="1800" end="2400" vehsPerHour="60" type="type1" from="-mm2_ru4.239" to="mm4_lb3" />
    <flow id="f_5_4_2" departPos="random_free" begin="1800" end="2400" vehsPerHour="60" type="type1" from="-mm2_ru4.239" to="mm2_ru4" />
    <flow id="f_5_5_2" departPos="random_free" begin="1800" end="2400" vehsPerHour="60" type="type1" from="-mm2_ru4.239" to="mm1_lm2" />
    <flow id="f_5_6_2" departPos="random_free" begin="1800" end="2400" vehsPerHour="60" type="type1" from="-mm2_ru4.239" to="-ru3_mu4"/>
    <flow id="f_5_7_2" departPos="random_free" begin="1800" end="2400" vehsPerHour="60" type="type1" from="-mm2_ru4.239" to="-lm2_mu3"/>
    <flow id="f_6_0_2" departPos="random_free" begin="1800" end="2400" vehsPerHour="50" type="type1" from="lm2_mu3.525" to="mu4_mu2" />
    <flow id="f_6_1_2" departPos="random_free" begin="1800" end="2400" vehsPerHour="50" type="type1" from="lm2_mu3.525" to="-lb2_rb3"/>
    <flow id="f_6_2_2" departPos="random_free" begin="1800" end="2400" vehsPerHour="50" type="type1" from="lm2_mu3.525" to="rb3_rb1.38" />
    <flow id="f_6_3_2" departPos="random_free" begin="1800" end="2400" vehsPerHour="50" type="type1" from="lm2_mu3.525" to="mm4_lb3" />
    <flow id="f_6_4_2" departPos="random_free" begin="1800" end="2400" vehsPerHour="50" type="type1" from="lm2_mu3.525" to="mm2_ru4" />
    <flow id="f_6_5_2" departPos="random_free" begin="1800" end="2400" vehsPerHour="50" type="type1" from="lm2_mu3.525" to="mm1_lm2" />
    <flow id="f_6_6_2" departPos="random_free" begin="1800" end="2400" vehsPerHour="50" type="type1" from="lm2_mu3.525" to="-ru3_mu4"/>
    <flow id="f_6_7_2" departPos="random_free" begin="1800" end="2400" vehsPerHour="50" type="type1" from="lm2_mu3.525" to="-lm2_mu3"/>
    <flow id="f_7_0_2" departPos="random_free" begin="1800" end="2400" vehsPerHour="60" type="type1" from="ru3_mu4" to="mu4_mu2" />
    <flow id="f_7_1_2" departPos="random_free" begin="1800" end="2400" vehsPerHour="60" type="type1" from="ru3_mu4" to="-lb2_rb3"/>
    <flow id="f_7_2_2" departPos="random_free" begin="1800" end="2400" vehsPerHour="60" type="type1" from="ru3_mu4" to="rb3_rb1.38" />
    <flow id="f_7_3_2" departPos="random_free" begin="1800" end="2400" vehsPerHour="60" type="type1" from="ru3_mu4" to="mm4_lb3" />
    <flow id="f_7_4_2" departPos="random_free" begin="1800" end="2400" vehsPerHour="60" type="type1" from="ru3_mu4" to="mm2_ru4" />
    <flow id="f_7_5_2" departPos="random_free" begin="1800" end="2400" vehsPerHour="60" type="type1" from="ru3_mu4" to="mm1_lm2" />
    <flow id="f_7_6_2" departPos="random_free" begin="1800" end="2400" vehsPerHour="60" type="type1" from="ru3_mu4" to="-ru3_mu4"/>
    <flow id="f_7_7_2" departPos="random_free" begin="1800" end="2400" vehsPerHour="60" type="type1" from="ru3_mu4" to="-lm2_mu3"/>
    <flow id="f_8_0_2" departPos="random_free" begin="1800" end="2400" vehsPerHour="150" type="type1" from="mu1_mu3" to="mu4_mu2" />
    <flow id="f_8_1_2" departPos="random_free" begin="1800" end="2400" vehsPerHour="150" type="type1" from="mu1_mu3" to="-lb2_rb3"/>
    <flow id="f_8_2_2" departPos="random_free" begin="1800" end="2400" vehsPerHour="150" type="type1" from="mu1_mu3" to="rb3_rb1.38" />
    <flow id="f_8_3_2" departPos="random_free" begin="1800" end="2400" vehsPerHour="150" type="type1" from="mu1_mu3" to="mm4_lb3" />
    <flow id="f_8_4_2" departPos="random_free" begin="1800" end="2400" vehsPerHour="150" type="type1" from="mu1_mu3" to="mm2_ru4" />
    <flow id="f_8_5_2" departPos="random_free" begin="1800" end="2400" vehsPerHour="150" type="type1" from="mu1_mu3" to="mm1_lm2" />
    <flow id="f_8_6_2" departPos="random_free" begin="1800" end="2400" vehsPerHour="150" type="type1" from="mu1_mu3" to="-ru3_mu4"/>
    <flow id="f_8_7_2" departPos="random_free" begin="1800" end="2400" vehsPerHour="150" type="type1" from="mu1_mu3" to="-lm2_mu3"/>

    <flow id="f_0_0_3" departPos="random_free" begin="3000" end="3600" vehsPerHour="260" type="type1" from="rb2_rb4" to="mu4_mu2" />
    <flow id="f_0_1_3" departPos="random_free" begin="3000" end="3600" vehsPerHour="260" type="type1" from="rb2_rb4" to="-lb2_rb3"/>
    <flow id="f_0_2_3" departPos="random_free" begin="3000" end="3600" vehsPerHour="260" type="type1" from="rb2_rb4" to="rb3_rb1.38" />
    <flow id="f_0_3_3" departPos="random_free" begin="3000" end="3600" vehsPerHour="260" type="type1" from="rb2_rb4" to="mm4_lb3" />
    <flow id="f_0_4_3" departPos="random_free" begin="3000" end="3600" vehsPerHour="260" type="type1" from="rb2_rb4" to="mm2_ru4" />
    <flow id="f_0_5_3" departPos="random_free" begin="3000" end="3600" vehsPerHour="260" type="type1" from="rb2_rb4" to="mm1_lm2" />
    <flow id="f_0_6_3" departPos="random_free" begin="3000" end="3600" vehsPerHour="260" type="type1" from="rb2_rb4" to="-ru3_mu4"/>